Version 4
SHEET 1 1132 680
WIRE 144 -224 64 -224
WIRE 304 -192 208 -192
WIRE 64 -176 64 -224
WIRE 144 -176 144 -224
WIRE 480 -176 320 -176
WIRE 640 -176 480 -176
WIRE 208 -160 208 -192
WIRE 240 -160 208 -160
WIRE 304 -144 304 -192
WIRE 320 -144 320 -176
WIRE 320 -144 304 -144
WIRE 240 -128 208 -128
WIRE 320 -96 320 -144
WIRE 480 -96 480 -176
WIRE 144 -48 144 -96
WIRE 208 -48 208 -128
WIRE 208 -48 144 -48
WIRE 224 -48 208 -48
WIRE 256 -48 224 -48
WIRE 416 -48 368 -48
WIRE 224 32 224 -48
WIRE 368 32 368 -48
WIRE 368 32 224 32
WIRE 144 80 144 -48
WIRE 640 80 640 -176
WIRE 320 128 320 0
WIRE 320 128 208 128
WIRE 480 128 480 0
WIRE 576 128 480 128
WIRE 144 224 144 176
WIRE 320 224 320 208
WIRE 480 224 480 208
WIRE 640 224 640 176
FLAG 144 224 0
FLAG 320 224 0
FLAG 640 224 0
FLAG 480 224 0
FLAG 64 -176 0
SYMBOL npn 208 80 M0
SYMATTR InstName Q1
SYMATTR Value 2N2222
SYMBOL npn 256 -96 R0
SYMATTR InstName Q2
SYMATTR Value 2N2222
SYMBOL npn 576 80 R0
SYMATTR InstName Q3
SYMATTR Value 2N2222
SYMBOL npn 416 -96 R0
SYMATTR InstName Q4
SYMATTR Value 2N2222
SYMBOL current 320 128 R0
WINDOW 123 0 0 Left 0
WINDOW 39 0 0 Left 0
SYMATTR InstName I1
SYMATTR Value 0.1m
SYMBOL current 480 128 R0
WINDOW 123 0 0 Left 0
WINDOW 39 0 0 Left 0
SYMATTR InstName I2
SYMATTR Value 2m
SYMBOL current 144 -176 R0
WINDOW 123 0 0 Left 0
WINDOW 39 0 0 Left 0
SYMATTR InstName I3
SYMATTR Value 1m
SYMBOL Opamps\\opamp 272 -208 R0
SYMATTR InstName U1
TEXT 64 248 Left 2 !.tran 5
TEXT 960 -136 Left 2 !.lib opamp.sub
TEXT 216 -232 Left 2 ;Buffer to ensure low VDS error
